Cleaning case /home/fy0/OpenFOAM/fy0-v1906/run/flowSolidGrowth2D
Running blockMesh on /home/fy0/OpenFOAM/fy0-v1906/run/flowSolidGrowth2D
Running setFields on /home/fy0/OpenFOAM/fy0-v1906/run/flowSolidGrowth2D
Running decomposePar on /home/fy0/OpenFOAM/fy0-v1906/run/flowSolidGrowth2D
Running mpFoam (4 processes) on /home/fy0/OpenFOAM/fy0-v1906/run/flowSolidGrowth2D 
Running reconstructPar on /home/fy0/OpenFOAM/fy0-v1906/run/flowSolidGrowth2D
/*---------------------------------------------------------------------------*\
| =========                 |                                                 |
| \\      /  F ield         | OpenFOAM: The Open Source CFD Toolbox           |
|  \\    /   O peration     | Version:  v1906                                 |
|   \\  /    A nd           | Web:      www.OpenFOAM.com                      |
|    \\/     M anipulation  |                                                 |
\*---------------------------------------------------------------------------*/
Build  : v1906 OPENFOAM=1906
Arch   : "LSB;label=32;scalar=64"
Exec   : foamToVTK
Date   : Jan 08 2020
Time   : 11:54:43
Host   : or-slurm-c01.ornl.gov
PID    : 24081
I/O    : uncollated
Case   : /home/fy0/OpenFOAM/fy0-v1906/run/flowSolidGrowth2D
nProcs : 1
trapFpe: Floating point exception trapping enabled (FOAM_SIGFPE).
fileModificationChecking : Monitoring run-time modified files using timeStampMaster (fileModificationSkew 10)
allowSystemOperations : Allowing user-supplied system call operations

// * * * * * * * * * * * * * * * * * * * * * * * * * * * * * * * * * * * * * //
Create time

Initial memory 219428 kB
Create mesh for time = 0

VTK mesh topology: 0.04 s, 227452 kB
Time: 0
    volScalar    : C C.orig SuOut T alpha.liquid alpha.liquid.orig alpha.solid alpha.solid.orig diffCo diffCo.orig p_rgh
    volVector    : U
    Internal  : "VTK/flowSolidGrowth2D_0/internal.vtu"
    Boundary  : "VTK/flowSolidGrowth2D_0/boundary/left.vtp"
    Boundary  : "VTK/flowSolidGrowth2D_0/boundary/right.vtp"
    Boundary  : "VTK/flowSolidGrowth2D_0/boundary/bottom.vtp"
    Boundary  : "VTK/flowSolidGrowth2D_0/boundary/top.vtp"
Wrote in 0.17 s, 236892 kB
Time: 1
    volScalar    : C Cmask SuOut T alpha.liquid alpha.solid areaDensity diffCo dmdt.liquidToSolid mKGasDot p p_rgh rho
    volVector    : U
    volScalar:Internal    : Spliquid Spsolid Suliquid Susolid
    Internal  : "VTK/flowSolidGrowth2D_320/internal.vtu"
    Boundary  : "VTK/flowSolidGrowth2D_320/boundary/left.vtp"
    Boundary  : "VTK/flowSolidGrowth2D_320/boundary/right.vtp"
    Boundary  : "VTK/flowSolidGrowth2D_320/boundary/bottom.vtp"
    Boundary  : "VTK/flowSolidGrowth2D_320/boundary/top.vtp"
Wrote in 0.15 s, 238076 kB
Time: 2
    volScalar    : C Cmask SuOut T alpha.liquid alpha.solid areaDensity diffCo dmdt.liquidToSolid mKGasDot p p_rgh rho
    volVector    : U
    volScalar:Internal    : Spliquid Spsolid Suliquid Susolid
    Internal  : "VTK/flowSolidGrowth2D_640/internal.vtu"
    Boundary  : "VTK/flowSolidGrowth2D_640/boundary/left.vtp"
    Boundary  : "VTK/flowSolidGrowth2D_640/boundary/right.vtp"
    Boundary  : "VTK/flowSolidGrowth2D_640/boundary/bottom.vtp"
    Boundary  : "VTK/flowSolidGrowth2D_640/boundary/top.vtp"
Wrote in 0.25 s, 238076 kB
Time: 3
    volScalar    : C Cmask SuOut T alpha.liquid alpha.solid areaDensity diffCo dmdt.liquidToSolid mKGasDot p p_rgh rho
    volVector    : U
    volScalar:Internal    : Spliquid Spsolid Suliquid Susolid
    Internal  : "VTK/flowSolidGrowth2D_960/internal.vtu"
    Boundary  : "VTK/flowSolidGrowth2D_960/boundary/left.vtp"
    Boundary  : "VTK/flowSolidGrowth2D_960/boundary/right.vtp"
    Boundary  : "VTK/flowSolidGrowth2D_960/boundary/bottom.vtp"
    Boundary  : "VTK/flowSolidGrowth2D_960/boundary/top.vtp"
Wrote in 0.24 s, 238076 kB
Time: 4
    volScalar    : C Cmask SuOut T alpha.liquid alpha.solid areaDensity diffCo dmdt.liquidToSolid mKGasDot p p_rgh rho
    volVector    : U
    volScalar:Internal    : Spliquid Spsolid Suliquid Susolid
    Internal  : "VTK/flowSolidGrowth2D_1280/internal.vtu"
    Boundary  : "VTK/flowSolidGrowth2D_1280/boundary/left.vtp"
    Boundary  : "VTK/flowSolidGrowth2D_1280/boundary/right.vtp"
    Boundary  : "VTK/flowSolidGrowth2D_1280/boundary/bottom.vtp"
    Boundary  : "VTK/flowSolidGrowth2D_1280/boundary/top.vtp"
Wrote in 0.17 s, 238076 kB
Time: 5
    volScalar    : C Cmask SuOut T alpha.liquid alpha.solid areaDensity diffCo dmdt.liquidToSolid mKGasDot p p_rgh rho
    volVector    : U
    volScalar:Internal    : Spliquid Spsolid Suliquid Susolid
    Internal  : "VTK/flowSolidGrowth2D_1600/internal.vtu"
    Boundary  : "VTK/flowSolidGrowth2D_1600/boundary/left.vtp"
    Boundary  : "VTK/flowSolidGrowth2D_1600/boundary/right.vtp"
    Boundary  : "VTK/flowSolidGrowth2D_1600/boundary/bottom.vtp"
    Boundary  : "VTK/flowSolidGrowth2D_1600/boundary/top.vtp"
Wrote in 0.18 s, 238080 kB
Time: 6
    volScalar    : C Cmask SuOut T alpha.liquid alpha.solid areaDensity diffCo dmdt.liquidToSolid mKGasDot p p_rgh rho
    volVector    : U
    volScalar:Internal    : Spliquid Spsolid Suliquid Susolid
    Internal  : "VTK/flowSolidGrowth2D_1920/internal.vtu"
    Boundary  : "VTK/flowSolidGrowth2D_1920/boundary/left.vtp"
    Boundary  : "VTK/flowSolidGrowth2D_1920/boundary/right.vtp"
    Boundary  : "VTK/flowSolidGrowth2D_1920/boundary/bottom.vtp"
    Boundary  : "VTK/flowSolidGrowth2D_1920/boundary/top.vtp"
Wrote in 0.16 s, 238080 kB
Time: 7
    volScalar    : C Cmask SuOut T alpha.liquid alpha.solid areaDensity diffCo dmdt.liquidToSolid mKGasDot p p_rgh rho
    volVector    : U
    volScalar:Internal    : Spliquid Spsolid Suliquid Susolid
    Internal  : "VTK/flowSolidGrowth2D_2240/internal.vtu"
    Boundary  : "VTK/flowSolidGrowth2D_2240/boundary/left.vtp"
    Boundary  : "VTK/flowSolidGrowth2D_2240/boundary/right.vtp"
    Boundary  : "VTK/flowSolidGrowth2D_2240/boundary/bottom.vtp"
    Boundary  : "VTK/flowSolidGrowth2D_2240/boundary/top.vtp"
Wrote in 0.24 s, 238080 kB
Time: 8
    volScalar    : C Cmask SuOut T alpha.liquid alpha.solid areaDensity diffCo dmdt.liquidToSolid mKGasDot p p_rgh rho
    volVector    : U
    volScalar:Internal    : Spliquid Spsolid Suliquid Susolid
    Internal  : "VTK/flowSolidGrowth2D_2560/internal.vtu"
    Boundary  : "VTK/flowSolidGrowth2D_2560/boundary/left.vtp"
    Boundary  : "VTK/flowSolidGrowth2D_2560/boundary/right.vtp"
    Boundary  : "VTK/flowSolidGrowth2D_2560/boundary/bottom.vtp"
    Boundary  : "VTK/flowSolidGrowth2D_2560/boundary/top.vtp"
Wrote in 0.25 s, 238080 kB
Time: 9
    volScalar    : C Cmask SuOut T alpha.liquid alpha.solid areaDensity diffCo dmdt.liquidToSolid mKGasDot p p_rgh rho
    volVector    : U
    volScalar:Internal    : Spliquid Spsolid Suliquid Susolid
    Internal  : "VTK/flowSolidGrowth2D_2880/internal.vtu"
    Boundary  : "VTK/flowSolidGrowth2D_2880/boundary/left.vtp"
    Boundary  : "VTK/flowSolidGrowth2D_2880/boundary/right.vtp"
    Boundary  : "VTK/flowSolidGrowth2D_2880/boundary/bottom.vtp"
    Boundary  : "VTK/flowSolidGrowth2D_2880/boundary/top.vtp"
Wrote in 0.19 s, 238080 kB
Time: 10
    volScalar    : C Cmask SuOut T alpha.liquid alpha.solid areaDensity diffCo dmdt.liquidToSolid mKGasDot p p_rgh rho
    volVector    : U
    volScalar:Internal    : Spliquid Spsolid Suliquid Susolid
    Internal  : "VTK/flowSolidGrowth2D_3200/internal.vtu"
    Boundary  : "VTK/flowSolidGrowth2D_3200/boundary/left.vtp"
    Boundary  : "VTK/flowSolidGrowth2D_3200/boundary/right.vtp"
    Boundary  : "VTK/flowSolidGrowth2D_3200/boundary/bottom.vtp"
    Boundary  : "VTK/flowSolidGrowth2D_3200/boundary/top.vtp"
Wrote in 0.19 s, 238080 kB

End: 2.23 s, 242556 kB (peak)

